71753578
  -OEChem-08292409393D

 45 48  0     0  0  0  0  0  0999 V2000
    4.5478   -2.4022   -0.7025 O   0  0  0  0  0  0  0  0  0  0  0  0
    3.9240    2.9567    0.6685 O   0  0  0  0  0  0  0  0  0  0  0  0
   -0.9087   -1.6391    0.5401 O   0  0  0  0  0  0  0  0  0  0  0  0
    1.8539   -1.1302   -0.1373 N   0  0  0  0  0  0  0  0  0  0  0  0
   -1.4059    0.5775   -0.0663 N   0  0  0  0  0  0  0  0  0  0  0  0
   -6.9174    0.3949   -0.1747 N   0  0  0  0  0  0  0  0  0  0  0  0
    3.0989   -0.5431   -0.1105 C   0  0  0  0  0  0  0  0  0  0  0  0
    2.9137    0.7972    0.2353 C   0  0  0  0  0  0  0  0  0  0  0  0
    0.8908   -0.2100    0.1789 C   0  0  0  0  0  0  0  0  0  0  0  0
    1.5158    0.9930    0.4148 C   0  0  0  0  0  0  0  0  0  0  0  0
    4.3617   -1.0902   -0.3636 C   0  0  0  0  0  0  0  0  0  0  0  0
    4.0429    1.6342    0.3340 C   0  0  0  0  0  0  0  0  0  0  0  0
    1.5864   -2.5198   -0.4488 C   0  0  0  0  0  0  0  0  0  0  0  0
   -0.5657   -0.4992    0.2452 C   0  0  0  0  0  0  0  0  0  0  0  0
    5.4671   -0.2410   -0.2591 C   0  0  0  0  0  0  0  0  0  0  0  0
    5.3124    1.1006    0.0843 C   0  0  0  0  0  0  0  0  0  0  0  0
   -2.8011    0.5936   -0.1101 C   0  0  0  0  0  0  0  0  0  0  0  0
   -4.9214   -0.5522    0.1355 C   0  0  0  0  0  0  0  0  0  0  0  0
   -5.5632    0.6414   -0.2018 C   0  0  0  0  0  0  0  0  0  0  0  0
   -3.5134   -0.5753    0.1821 C   0  0  0  0  0  0  0  0  0  0  0  0
   -3.4683    1.7705   -0.4435 C   0  0  0  0  0  0  0  0  0  0  0  0
   -4.8643    1.8176   -0.4957 C   0  0  0  0  0  0  0  0  0  0  0  0
   -5.9370   -1.5219    0.3654 C   0  0  0  0  0  0  0  0  0  0  0  0
   -7.1532   -0.9098    0.1668 C   0  0  0  0  0  0  0  0  0  0  0  0
    4.7510   -3.3195    0.3673 C   0  0  0  0  0  0  0  0  0  0  0  0
    3.7532    3.8762   -0.4043 C   0  0  0  0  0  0  0  0  0  0  0  0
    1.0329    1.9199    0.6944 H   0  0  0  0  0  0  0  0  0  0  0  0
    1.5960   -3.0923    0.4810 H   0  0  0  0  0  0  0  0  0  0  0  0
    2.3222   -2.9001   -1.1564 H   0  0  0  0  0  0  0  0  0  0  0  0
    0.6223   -2.6091   -0.9540 H   0  0  0  0  0  0  0  0  0  0  0  0
    6.4659   -0.6277   -0.4481 H   0  0  0  0  0  0  0  0  0  0  0  0
    6.1918    1.7359    0.1579 H   0  0  0  0  0  0  0  0  0  0  0  0
   -0.9615    1.4607   -0.3060 H   0  0  0  0  0  0  0  0  0  0  0  0
   -3.0635   -1.5195    0.4471 H   0  0  0  0  0  0  0  0  0  0  0  0
   -2.9085    2.6757   -0.6693 H   0  0  0  0  0  0  0  0  0  0  0  0
   -5.3829    2.7344   -0.7553 H   0  0  0  0  0  0  0  0  0  0  0  0
   -5.7948   -2.5566    0.6459 H   0  0  0  0  0  0  0  0  0  0  0  0
   -7.6332    1.0788   -0.3779 H   0  0  0  0  0  0  0  0  0  0  0  0
   -8.1639   -1.2861    0.2383 H   0  0  0  0  0  0  0  0  0  0  0  0
    4.6467   -4.3347   -0.0251 H   0  0  0  0  0  0  0  0  0  0  0  0
    4.0172   -3.1750    1.1666 H   0  0  0  0  0  0  0  0  0  0  0  0
    5.7620   -3.2023    0.7698 H   0  0  0  0  0  0  0  0  0  0  0  0
    3.6658    4.8820    0.0158 H   0  0  0  0  0  0  0  0  0  0  0  0
    2.8399    3.6514   -0.9643 H   0  0  0  0  0  0  0  0  0  0  0  0
    4.6192    3.8515   -1.0735 H   0  0  0  0  0  0  0  0  0  0  0  0
  1 11  1  0  0  0  0
  1 25  1  0  0  0  0
  2 12  1  0  0  0  0
  2 26  1  0  0  0  0
  3 14  2  0  0  0  0
  4  7  1  0  0  0  0
  4  9  1  0  0  0  0
  4 13  1  0  0  0  0
  5 14  1  0  0  0  0
  5 17  1  0  0  0  0
  5 33  1  0  0  0  0
  6 19  1  0  0  0  0
  6 24  1  0  0  0  0
  6 38  1  0  0  0  0
  7  8  1  0  0  0  0
  7 11  2  0  0  0  0
  8 10  1  0  0  0  0
  8 12  2  0  0  0  0
  9 10  2  0  0  0  0
  9 14  1  0  0  0  0
 10 27  1  0  0  0  0
 11 15  1  0  0  0  0
 12 16  1  0  0  0  0
 13 28  1  0  0  0  0
 13 29  1  0  0  0  0
 13 30  1  0  0  0  0
 15 16  2  0  0  0  0
 15 31  1  0  0  0  0
 16 32  1  0  0  0  0
 17 20  2  0  0  0  0
 17 21  1  0  0  0  0
 18 19  2  0  0  0  0
 18 20  1  0  0  0  0
 18 23  1  0  0  0  0
 19 22  1  0  0  0  0
 20 34  1  0  0  0  0
 21 22  2  0  0  0  0
 21 35  1  0  0  0  0
 22 36  1  0  0  0  0
 23 24  2  0  0  0  0
 23 37  1  0  0  0  0
 24 39  1  0  0  0  0
 25 40  1  0  0  0  0
 25 41  1  0  0  0  0
 25 42  1  0  0  0  0
 26 43  1  0  0  0  0
 26 44  1  0  0  0  0
 26 45  1  0  0  0  0
M  END
> <PUBCHEM_COMPOUND_CID>
71753578

> <PUBCHEM_CONFORMER_RMSD>
0.8

> <PUBCHEM_CONFORMER_DIVERSEORDER>
1
5
12
7
10
4
13
16
9
11
8
2
6
3
14
15

> <PUBCHEM_MMFF94_PARTIAL_CHARGES>
34
1 -0.36
10 -0.15
11 0.08
12 0.08
13 0.26
14 0.71
15 -0.15
16 -0.15
17 0.12
19 -0.15
2 -0.36
20 -0.15
21 -0.15
22 -0.15
23 -0.15
24 -0.3
25 0.28
26 0.28
27 0.15
3 -0.57
31 0.15
32 0.15
33 0.37
34 0.15
35 0.15
36 0.15
37 0.15
38 0.27
39 0.15
4 0.05
5 -0.55
6 0.03
7 -0.15
9 -0.24

> <PUBCHEM_EFFECTIVE_ROTOR_COUNT>
5

> <PUBCHEM_PHARMACOPHORE_FEATURES>
11
1 1 acceptor
1 2 acceptor
1 3 acceptor
1 4 cation
1 5 donor
1 6 cation
1 6 donor
5 4 7 8 9 10 rings
5 6 18 19 23 24 rings
6 17 18 19 20 21 22 rings
6 7 8 11 12 15 16 rings

> <PUBCHEM_HEAVY_ATOM_COUNT>
26

> <PUBCHEM_ATOM_DEF_STEREO_COUNT>
0

> <PUBCHEM_ATOM_UDEF_STEREO_COUNT>
0

> <PUBCHEM_BOND_DEF_STEREO_COUNT>
0

> <PUBCHEM_BOND_UDEF_STEREO_COUNT>
0

> <PUBCHEM_ISOTOPIC_ATOM_COUNT>
0

> <PUBCHEM_COMPONENT_COUNT>
1

> <PUBCHEM_CACTVS_TAUTO_COUNT>
2

> <PUBCHEM_CONFORMER_ID>
0446DF6A00000001

> <PUBCHEM_MMFF94_ENERGY>
84.8896

> <PUBCHEM_FEATURE_SELFOVERLAP>
56.005

> <PUBCHEM_SHAPE_FINGERPRINT>
10 15 18263074565306403416
10411042 1 18123753050908047310
10595046 47 18342737455429649769
10673678 19 18119257413617469276
10835480 77 18409159988278192941
11524674 6 16558749027748108087
11719270 70 18200869587021451519
12107183 9 17693663619303238305
12166972 35 18410296908364365065
12236239 1 17632861901992550339
12403259 415 18187075148946985613
12616971 3 17632286870211736189
12730499 353 18412547643241795706
12788726 201 16845301510073366091
13073987 5 18271525308065199672
13402501 40 18408603677974621113
13533116 47 18413671305433734370
13782708 43 17968941877228943171
14170010 4 18343018900663375376
14341114 176 18410295813679947765
14461889 52 18264203776231871026
14933364 13 18410858763491009225
15183329 4 18339928125499879363
15196674 1 18410292480442350257
15961568 22 17895194458262802244
16992752 21 17760932841105463466
17844677 252 18412550881731896545
18335252 98 18336271236094598371
18681886 176 18341889650476716506
19427546 62 18265615566811152818
20157964 124 18341333370380178144
20645477 70 18272374131516810646
21267235 1 18342463612129880238
21315763 129 18337670823743546852
21315764 268 18334852810117676837
221357 26 18412825767801520249
22149856 69 18341346569426518209
22393880 68 18042680616240044767
23081809 10 12901542456196229779
23522609 53 17773620350279569417
23559900 14 18410005559980163769
239999 70 18342741797504702558
255183 451 18057052320343580766
2747138 104 17822587087942880177
3004659 81 18261958440898106730
335352 9 18412548726375297350
34797466 226 18131078155546985917
3545911 37 18411419531094564041
4073 2 18187088402762555939
4325135 7 18413387661799193709
46194498 28 18412266121004874324
5104073 3 18341892939925280369
53794403 172 18116720810074341020
59755656 215 18335423456399473047
9996256 80 18412544310563744023

> <PUBCHEM_SHAPE_MULTIPOLES>
502.52
17.73
3.23
0.71
20.98
0.82
0.01
-0.86
0.38
-5.58
0.14
-0.13
0.01
0.96

> <PUBCHEM_SHAPE_SELFOVERLAP>
1117.381

> <PUBCHEM_SHAPE_VOLUME>
271.3

> <PUBCHEM_COORDINATE_TYPE>
2
5
10

$$$$
